*** 
***  Copyright 2003-2013, University of Cambridge, Computer Laboratory. 
***  Copyright and related rights are licensed under the Hardware License, 
***  Version 2.0 (the "License"); you may not use this file except in 
***  compliance with the License. You may obtain a copy of the License at
***  http://www.cl.cam.ac.uk/research/srg/netos/greenict/projects/contest/. 
***  Unless required by applicable law or agreed to in writing, software, 
***  hardware and materials distributed under this License is distributed 
***  on an "AS IS" BASIS, WITHOUT WARRANTIES OR CONDITIONS OF ANY KIND,
***  either express or implied. See the License for the specific language
***  governing permissions and limitations under the License.
*** 
*** 

*** SPICE structural netlist of 'PISO64_4' after Design Compiler synthesis, based on port order in '/usr/groups/ecad/kits/commercial45_v2010_12/n45-library-netlist-noparasitics.spi' ***

.SUBCKT PISO64_4 VDD_PISO64_4 VSS_PISO64_4 CLK_IN DATA_IN[0] DATA_IN[1] DATA_IN[2] DATA_IN[3] DATA_IN[4] DATA_IN[5] DATA_IN[6] DATA_IN[7] DATA_IN[8] DATA_IN[9] DATA_IN[10] DATA_IN[11] DATA_IN[12] DATA_IN[13] DATA_IN[14] DATA_IN[15] DATA_IN[16] DATA_IN[17] DATA_IN[18] DATA_IN[19] DATA_IN[20] DATA_IN[21] DATA_IN[22] DATA_IN[23] DATA_IN[24] DATA_IN[25] DATA_IN[26] DATA_IN[27] DATA_IN[28] DATA_IN[29] DATA_IN[30] DATA_IN[31] DATA_IN[32] DATA_IN[33] DATA_IN[34] DATA_IN[35] DATA_IN[36] DATA_IN[37] DATA_IN[38] DATA_IN[39] DATA_IN[40] DATA_IN[41] DATA_IN[42] DATA_IN[43] DATA_IN[44] DATA_IN[45] DATA_IN[46] DATA_IN[47] DATA_IN[48] DATA_IN[49] DATA_IN[50] DATA_IN[51] DATA_IN[52] DATA_IN[53] DATA_IN[54] DATA_IN[55] DATA_IN[56] DATA_IN[57] DATA_IN[58] DATA_IN[59] DATA_IN[60] DATA_IN[61] DATA_IN[62] DATA_IN[63] RESET_IN DATA_USED_OUT SERIAL_OUT[0] SERIAL_OUT[1] SERIAL_OUT[2] SERIAL_OUT[3]  
*** instances
xpisos_0__PISO16_ctr_reg_1_  pisos_0__PISO16_N4___rc n111___rc n115___rc pisos_0__PISO16_ctr_1_ SPICE_NETLIST_UNCONNECTED_1 VDD_PISO64_4 VSS_PISO64_4  DFFR_X1
xpisos_0__PISO16_ctr_reg_2_  pisos_0__PISO16_N5___rc n109___rc n115___rc pisos_0__PISO16_ctr_2_ SPICE_NETLIST_UNCONNECTED_2 VDD_PISO64_4 VSS_PISO64_4  DFFR_X1
xpisos_0__PISO16_ctr_reg_3_  pisos_0__PISO16_N6___rc n109___rc n115___rc pisos_0__PISO16_ctr_3_ SPICE_NETLIST_UNCONNECTED_3 VDD_PISO64_4 VSS_PISO64_4  DFFR_X1
xpisos_0__PISO16_shift_register_reg_15_  pisos_0__PISO16_N22___rc n111___rc n114___rc pisos_0__PISO16_shift_register[15] SPICE_NETLIST_UNCONNECTED_4 VDD_PISO64_4 VSS_PISO64_4  DFFR_X1
xpisos_0__PISO16_shift_register_reg_14_  pisos_0__PISO16_N21___rc n112___rc n114___rc pisos_0__PISO16_shift_register[14] SPICE_NETLIST_UNCONNECTED_5 VDD_PISO64_4 VSS_PISO64_4  DFFR_X1
xpisos_0__PISO16_shift_register_reg_13_  pisos_0__PISO16_N20___rc n112___rc n114___rc pisos_0__PISO16_shift_register[13] SPICE_NETLIST_UNCONNECTED_6 VDD_PISO64_4 VSS_PISO64_4  DFFR_X1
xpisos_0__PISO16_shift_register_reg_12_  pisos_0__PISO16_N19___rc n112___rc n114___rc pisos_0__PISO16_shift_register[12] SPICE_NETLIST_UNCONNECTED_7 VDD_PISO64_4 VSS_PISO64_4  DFFR_X1
xpisos_0__PISO16_shift_register_reg_11_  pisos_0__PISO16_N18___rc n112___rc n114___rc pisos_0__PISO16_shift_register[11] SPICE_NETLIST_UNCONNECTED_8 VDD_PISO64_4 VSS_PISO64_4  DFFR_X1
xpisos_0__PISO16_shift_register_reg_10_  pisos_0__PISO16_N17___rc n110___rc n115___rc pisos_0__PISO16_shift_register[10] SPICE_NETLIST_UNCONNECTED_9 VDD_PISO64_4 VSS_PISO64_4  DFFR_X1
xpisos_0__PISO16_shift_register_reg_9_  pisos_0__PISO16_N16___rc n109___rc n115___rc pisos_0__PISO16_shift_register[9] SPICE_NETLIST_UNCONNECTED_10 VDD_PISO64_4 VSS_PISO64_4  DFFR_X1
xpisos_0__PISO16_shift_register_reg_8_  pisos_0__PISO16_N15___rc n109___rc n115___rc pisos_0__PISO16_shift_register[8] SPICE_NETLIST_UNCONNECTED_11 VDD_PISO64_4 VSS_PISO64_4  DFFR_X1
xpisos_0__PISO16_shift_register_reg_7_  pisos_0__PISO16_N14___rc n112___rc n114___rc pisos_0__PISO16_shift_register[7] SPICE_NETLIST_UNCONNECTED_12 VDD_PISO64_4 VSS_PISO64_4  DFFR_X1
xpisos_0__PISO16_shift_register_reg_6_  pisos_0__PISO16_N13___rc n112___rc n114___rc pisos_0__PISO16_shift_register[6] SPICE_NETLIST_UNCONNECTED_13 VDD_PISO64_4 VSS_PISO64_4  DFFR_X1
xpisos_0__PISO16_shift_register_reg_5_  pisos_0__PISO16_N12___rc n112___rc n114___rc pisos_0__PISO16_shift_register[5] SPICE_NETLIST_UNCONNECTED_14 VDD_PISO64_4 VSS_PISO64_4  DFFR_X1
xpisos_0__PISO16_shift_register_reg_4_  pisos_0__PISO16_N11___rc n111___rc n115___rc pisos_0__PISO16_shift_register[4] SPICE_NETLIST_UNCONNECTED_15 VDD_PISO64_4 VSS_PISO64_4  DFFR_X1
xpisos_0__PISO16_shift_register_reg_3_  pisos_0__PISO16_N10___rc n112___rc n114___rc pisos_0__PISO16_shift_register[3] SPICE_NETLIST_UNCONNECTED_16 VDD_PISO64_4 VSS_PISO64_4  DFFR_X1
xpisos_0__PISO16_shift_register_reg_2_  pisos_0__PISO16_N9___rc n112___rc n114___rc pisos_0__PISO16_shift_register[2] SPICE_NETLIST_UNCONNECTED_17 VDD_PISO64_4 VSS_PISO64_4  DFFR_X1
xpisos_0__PISO16_shift_register_reg_1_  pisos_0__PISO16_N8___rc n112___rc n114___rc pisos_0__PISO16_shift_register[1] SPICE_NETLIST_UNCONNECTED_18 VDD_PISO64_4 VSS_PISO64_4  DFFR_X1
xpisos_0__PISO16_shift_register_reg_0_  pisos_0__PISO16_N7___rc n112___rc n114___rc SERIAL_OUT[0] SPICE_NETLIST_UNCONNECTED_19 VDD_PISO64_4 VSS_PISO64_4  DFFR_X1
xpisos_1__PISO16_ctr_reg_1_  pisos_1__PISO16_N4___rc n112___rc n114___rc pisos_1__PISO16_ctr_1_ SPICE_NETLIST_UNCONNECTED_20 VDD_PISO64_4 VSS_PISO64_4  DFFR_X1
xpisos_1__PISO16_ctr_reg_2_  pisos_1__PISO16_N5___rc n111___rc n114___rc pisos_1__PISO16_ctr_2_ SPICE_NETLIST_UNCONNECTED_21 VDD_PISO64_4 VSS_PISO64_4  DFFR_X1
xpisos_1__PISO16_ctr_reg_3_  pisos_1__PISO16_N6___rc n112___rc n114___rc pisos_1__PISO16_ctr_3_ SPICE_NETLIST_UNCONNECTED_22 VDD_PISO64_4 VSS_PISO64_4  DFFR_X1
xpisos_1__PISO16_shift_register_reg_15_  pisos_1__PISO16_N22___rc n112___rc n114___rc pisos_1__PISO16_shift_register[15] SPICE_NETLIST_UNCONNECTED_23 VDD_PISO64_4 VSS_PISO64_4  DFFR_X1
xpisos_1__PISO16_shift_register_reg_14_  pisos_1__PISO16_N21___rc n111___rc n115___rc pisos_1__PISO16_shift_register[14] SPICE_NETLIST_UNCONNECTED_24 VDD_PISO64_4 VSS_PISO64_4  DFFR_X1
xpisos_1__PISO16_shift_register_reg_13_  pisos_1__PISO16_N20___rc n111___rc n114___rc pisos_1__PISO16_shift_register[13] SPICE_NETLIST_UNCONNECTED_25 VDD_PISO64_4 VSS_PISO64_4  DFFR_X1
xpisos_1__PISO16_shift_register_reg_12_  pisos_1__PISO16_N19___rc n112___rc n114___rc pisos_1__PISO16_shift_register[12] SPICE_NETLIST_UNCONNECTED_26 VDD_PISO64_4 VSS_PISO64_4  DFFR_X1
xpisos_1__PISO16_shift_register_reg_11_  pisos_1__PISO16_N18___rc n109___rc n115___rc pisos_1__PISO16_shift_register[11] SPICE_NETLIST_UNCONNECTED_27 VDD_PISO64_4 VSS_PISO64_4  DFFR_X1
xpisos_1__PISO16_shift_register_reg_10_  pisos_1__PISO16_N17___rc n109___rc n115___rc pisos_1__PISO16_shift_register[10] SPICE_NETLIST_UNCONNECTED_28 VDD_PISO64_4 VSS_PISO64_4  DFFR_X1
xpisos_1__PISO16_shift_register_reg_9_  pisos_1__PISO16_N16___rc n111___rc n115___rc pisos_1__PISO16_shift_register[9] SPICE_NETLIST_UNCONNECTED_29 VDD_PISO64_4 VSS_PISO64_4  DFFR_X1
xpisos_1__PISO16_shift_register_reg_8_  pisos_1__PISO16_N15___rc n110___rc n115___rc pisos_1__PISO16_shift_register[8] SPICE_NETLIST_UNCONNECTED_30 VDD_PISO64_4 VSS_PISO64_4  DFFR_X1
xpisos_1__PISO16_shift_register_reg_7_  pisos_1__PISO16_N14___rc n110___rc n114___rc pisos_1__PISO16_shift_register[7] SPICE_NETLIST_UNCONNECTED_31 VDD_PISO64_4 VSS_PISO64_4  DFFR_X1
xpisos_1__PISO16_shift_register_reg_6_  pisos_1__PISO16_N13___rc n109___rc n115___rc pisos_1__PISO16_shift_register[6] SPICE_NETLIST_UNCONNECTED_32 VDD_PISO64_4 VSS_PISO64_4  DFFR_X1
xpisos_1__PISO16_shift_register_reg_5_  pisos_1__PISO16_N12___rc n110___rc n115___rc pisos_1__PISO16_shift_register[5] SPICE_NETLIST_UNCONNECTED_33 VDD_PISO64_4 VSS_PISO64_4  DFFR_X1
xpisos_1__PISO16_shift_register_reg_4_  pisos_1__PISO16_N11___rc n109___rc n115___rc pisos_1__PISO16_shift_register[4] SPICE_NETLIST_UNCONNECTED_34 VDD_PISO64_4 VSS_PISO64_4  DFFR_X1
xpisos_1__PISO16_shift_register_reg_3_  pisos_1__PISO16_N10___rc n111___rc n115___rc pisos_1__PISO16_shift_register[3] SPICE_NETLIST_UNCONNECTED_35 VDD_PISO64_4 VSS_PISO64_4  DFFR_X1
xpisos_1__PISO16_shift_register_reg_2_  pisos_1__PISO16_N9___rc n110___rc n115___rc pisos_1__PISO16_shift_register[2] SPICE_NETLIST_UNCONNECTED_36 VDD_PISO64_4 VSS_PISO64_4  DFFR_X1
xpisos_1__PISO16_shift_register_reg_1_  pisos_1__PISO16_N8___rc n110___rc n115___rc pisos_1__PISO16_shift_register[1] SPICE_NETLIST_UNCONNECTED_37 VDD_PISO64_4 VSS_PISO64_4  DFFR_X1
xpisos_1__PISO16_shift_register_reg_0_  pisos_1__PISO16_N7___rc n110___rc n115___rc SERIAL_OUT[1] SPICE_NETLIST_UNCONNECTED_38 VDD_PISO64_4 VSS_PISO64_4  DFFR_X1
xpisos_2__PISO16_ctr_reg_1_  pisos_2__PISO16_N4___rc n111___rc n115___rc pisos_2__PISO16_ctr_1_ SPICE_NETLIST_UNCONNECTED_39 VDD_PISO64_4 VSS_PISO64_4  DFFR_X1
xpisos_2__PISO16_ctr_reg_2_  pisos_2__PISO16_N5___rc n111___rc n115___rc pisos_2__PISO16_ctr_2_ SPICE_NETLIST_UNCONNECTED_40 VDD_PISO64_4 VSS_PISO64_4  DFFR_X1
xpisos_2__PISO16_ctr_reg_3_  pisos_2__PISO16_N6___rc n109___rc n115___rc pisos_2__PISO16_ctr_3_ SPICE_NETLIST_UNCONNECTED_41 VDD_PISO64_4 VSS_PISO64_4  DFFR_X1
xpisos_2__PISO16_shift_register_reg_15_  pisos_2__PISO16_N22___rc n112___rc n114___rc pisos_2__PISO16_shift_register[15] SPICE_NETLIST_UNCONNECTED_42 VDD_PISO64_4 VSS_PISO64_4  DFFR_X1
xpisos_2__PISO16_shift_register_reg_14_  pisos_2__PISO16_N21___rc n112___rc n114___rc pisos_2__PISO16_shift_register[14] SPICE_NETLIST_UNCONNECTED_43 VDD_PISO64_4 VSS_PISO64_4  DFFR_X1
xpisos_2__PISO16_shift_register_reg_13_  pisos_2__PISO16_N20___rc n109___rc n115___rc pisos_2__PISO16_shift_register[13] SPICE_NETLIST_UNCONNECTED_44 VDD_PISO64_4 VSS_PISO64_4  DFFR_X1
xpisos_2__PISO16_shift_register_reg_12_  pisos_2__PISO16_N19___rc n112___rc n114___rc pisos_2__PISO16_shift_register[12] SPICE_NETLIST_UNCONNECTED_45 VDD_PISO64_4 VSS_PISO64_4  DFFR_X1
xpisos_2__PISO16_shift_register_reg_11_  pisos_2__PISO16_N18___rc n110___rc n115___rc pisos_2__PISO16_shift_register[11] SPICE_NETLIST_UNCONNECTED_46 VDD_PISO64_4 VSS_PISO64_4  DFFR_X1
xpisos_2__PISO16_shift_register_reg_10_  pisos_2__PISO16_N17___rc n112___rc n114___rc pisos_2__PISO16_shift_register[10] SPICE_NETLIST_UNCONNECTED_47 VDD_PISO64_4 VSS_PISO64_4  DFFR_X1
xpisos_2__PISO16_shift_register_reg_9_  pisos_2__PISO16_N16___rc n111___rc CLK_IN___rc pisos_2__PISO16_shift_register[9] SPICE_NETLIST_UNCONNECTED_48 VDD_PISO64_4 VSS_PISO64_4  DFFR_X1
xpisos_2__PISO16_shift_register_reg_8_  pisos_2__PISO16_N15___rc n109___rc n115___rc pisos_2__PISO16_shift_register[8] SPICE_NETLIST_UNCONNECTED_49 VDD_PISO64_4 VSS_PISO64_4  DFFR_X1
xpisos_2__PISO16_shift_register_reg_7_  pisos_2__PISO16_N14___rc n112___rc n114___rc pisos_2__PISO16_shift_register[7] SPICE_NETLIST_UNCONNECTED_50 VDD_PISO64_4 VSS_PISO64_4  DFFR_X1
xpisos_2__PISO16_shift_register_reg_6_  pisos_2__PISO16_N13___rc n112___rc n114___rc pisos_2__PISO16_shift_register[6] SPICE_NETLIST_UNCONNECTED_51 VDD_PISO64_4 VSS_PISO64_4  DFFR_X1
xpisos_2__PISO16_shift_register_reg_5_  pisos_2__PISO16_N12___rc n112___rc n114___rc pisos_2__PISO16_shift_register[5] SPICE_NETLIST_UNCONNECTED_52 VDD_PISO64_4 VSS_PISO64_4  DFFR_X1
xpisos_2__PISO16_shift_register_reg_4_  pisos_2__PISO16_N11___rc n112___rc n114___rc pisos_2__PISO16_shift_register[4] SPICE_NETLIST_UNCONNECTED_53 VDD_PISO64_4 VSS_PISO64_4  DFFR_X1
xpisos_2__PISO16_shift_register_reg_3_  pisos_2__PISO16_N10___rc n110___rc n115___rc pisos_2__PISO16_shift_register[3] SPICE_NETLIST_UNCONNECTED_54 VDD_PISO64_4 VSS_PISO64_4  DFFR_X1
xpisos_2__PISO16_shift_register_reg_2_  pisos_2__PISO16_N9___rc n112___rc n114___rc pisos_2__PISO16_shift_register[2] SPICE_NETLIST_UNCONNECTED_55 VDD_PISO64_4 VSS_PISO64_4  DFFR_X1
xpisos_2__PISO16_shift_register_reg_1_  pisos_2__PISO16_N8___rc n109___rc n115___rc pisos_2__PISO16_shift_register[1] SPICE_NETLIST_UNCONNECTED_56 VDD_PISO64_4 VSS_PISO64_4  DFFR_X1
xpisos_2__PISO16_shift_register_reg_0_  pisos_2__PISO16_N7___rc n112___rc n114___rc SERIAL_OUT[2] SPICE_NETLIST_UNCONNECTED_57 VDD_PISO64_4 VSS_PISO64_4  DFFR_X1
xpisos_3__PISO16_ctr_reg_1_  pisos_3__PISO16_N4___rc n112___rc n115___rc pisos_3__PISO16_ctr_1_ SPICE_NETLIST_UNCONNECTED_58 VDD_PISO64_4 VSS_PISO64_4  DFFR_X1
xpisos_3__PISO16_ctr_reg_2_  pisos_3__PISO16_N5___rc n110___rc n115___rc pisos_3__PISO16_ctr_2_ SPICE_NETLIST_UNCONNECTED_59 VDD_PISO64_4 VSS_PISO64_4  DFFR_X1
xpisos_3__PISO16_ctr_reg_3_  pisos_3__PISO16_N6___rc n111___rc n115___rc pisos_3__PISO16_ctr_3_ SPICE_NETLIST_UNCONNECTED_60 VDD_PISO64_4 VSS_PISO64_4  DFFR_X1
xpisos_3__PISO16_shift_register_reg_15_  pisos_3__PISO16_N22___rc n110___rc n115___rc pisos_3__PISO16_shift_register[15] SPICE_NETLIST_UNCONNECTED_61 VDD_PISO64_4 VSS_PISO64_4  DFFR_X1
xpisos_3__PISO16_shift_register_reg_14_  pisos_3__PISO16_N21___rc n110___rc n115___rc pisos_3__PISO16_shift_register[14] SPICE_NETLIST_UNCONNECTED_62 VDD_PISO64_4 VSS_PISO64_4  DFFR_X1
xpisos_3__PISO16_shift_register_reg_13_  pisos_3__PISO16_N20___rc n112___rc n114___rc pisos_3__PISO16_shift_register[13] SPICE_NETLIST_UNCONNECTED_63 VDD_PISO64_4 VSS_PISO64_4  DFFR_X1
xpisos_3__PISO16_shift_register_reg_12_  pisos_3__PISO16_N19___rc n109___rc n115___rc pisos_3__PISO16_shift_register[12] SPICE_NETLIST_UNCONNECTED_64 VDD_PISO64_4 VSS_PISO64_4  DFFR_X1
xpisos_3__PISO16_shift_register_reg_11_  pisos_3__PISO16_N18___rc n109___rc n115___rc pisos_3__PISO16_shift_register[11] SPICE_NETLIST_UNCONNECTED_65 VDD_PISO64_4 VSS_PISO64_4  DFFR_X1
xpisos_3__PISO16_shift_register_reg_10_  pisos_3__PISO16_N17___rc n112___rc n114___rc pisos_3__PISO16_shift_register[10] SPICE_NETLIST_UNCONNECTED_66 VDD_PISO64_4 VSS_PISO64_4  DFFR_X1
xpisos_3__PISO16_shift_register_reg_9_  pisos_3__PISO16_N16___rc n112___rc n114___rc pisos_3__PISO16_shift_register[9] SPICE_NETLIST_UNCONNECTED_67 VDD_PISO64_4 VSS_PISO64_4  DFFR_X1
xpisos_3__PISO16_shift_register_reg_8_  pisos_3__PISO16_N15___rc n112___rc n114___rc pisos_3__PISO16_shift_register[8] SPICE_NETLIST_UNCONNECTED_68 VDD_PISO64_4 VSS_PISO64_4  DFFR_X1
xpisos_3__PISO16_shift_register_reg_7_  pisos_3__PISO16_N14___rc n110___rc n115___rc pisos_3__PISO16_shift_register[7] SPICE_NETLIST_UNCONNECTED_69 VDD_PISO64_4 VSS_PISO64_4  DFFR_X1
xpisos_3__PISO16_shift_register_reg_6_  pisos_3__PISO16_N13___rc n110___rc n115___rc pisos_3__PISO16_shift_register[6] SPICE_NETLIST_UNCONNECTED_70 VDD_PISO64_4 VSS_PISO64_4  DFFR_X1
xpisos_3__PISO16_shift_register_reg_5_  pisos_3__PISO16_N12___rc n111___rc n114___rc pisos_3__PISO16_shift_register[5] SPICE_NETLIST_UNCONNECTED_71 VDD_PISO64_4 VSS_PISO64_4  DFFR_X1
xpisos_3__PISO16_shift_register_reg_4_  pisos_3__PISO16_N11___rc n111___rc n115___rc pisos_3__PISO16_shift_register[4] SPICE_NETLIST_UNCONNECTED_72 VDD_PISO64_4 VSS_PISO64_4  DFFR_X1
xpisos_3__PISO16_shift_register_reg_3_  pisos_3__PISO16_N10___rc n111___rc n114___rc pisos_3__PISO16_shift_register[3] SPICE_NETLIST_UNCONNECTED_73 VDD_PISO64_4 VSS_PISO64_4  DFFR_X1
xpisos_3__PISO16_shift_register_reg_2_  pisos_3__PISO16_N9___rc n109___rc n115___rc pisos_3__PISO16_shift_register[2] SPICE_NETLIST_UNCONNECTED_74 VDD_PISO64_4 VSS_PISO64_4  DFFR_X1
xpisos_3__PISO16_shift_register_reg_1_  pisos_3__PISO16_N8___rc n110___rc n115___rc pisos_3__PISO16_shift_register[1] SPICE_NETLIST_UNCONNECTED_75 VDD_PISO64_4 VSS_PISO64_4  DFFR_X1
xpisos_3__PISO16_shift_register_reg_0_  pisos_3__PISO16_N7___rc n110___rc n115___rc SERIAL_OUT[3] SPICE_NETLIST_UNCONNECTED_76 VDD_PISO64_4 VSS_PISO64_4  DFFR_X1
xU111  n41___rc n24___rc pisos_3__PISO16_ctr_1____rc pisos_3__PISO16_N4 VDD_PISO64_4 VSS_PISO64_4  AOI21_X1
xU112  n24___rc pisos_3__PISO16_ctr_1____rc n41 VDD_PISO64_4 VSS_PISO64_4  NOR2_X1
xU113  n39___rc n24___rc pisos_2__PISO16_ctr_1____rc pisos_2__PISO16_N4 VDD_PISO64_4 VSS_PISO64_4  AOI21_X1
xU114  n24___rc pisos_2__PISO16_ctr_1____rc n39 VDD_PISO64_4 VSS_PISO64_4  NOR2_X1
xU115  n37___rc n24___rc pisos_1__PISO16_ctr_1____rc pisos_1__PISO16_N4 VDD_PISO64_4 VSS_PISO64_4  AOI21_X1
xU116  n24___rc pisos_1__PISO16_ctr_1____rc n37 VDD_PISO64_4 VSS_PISO64_4  NOR2_X1
xU117  n35___rc n24___rc pisos_0__PISO16_ctr_1____rc pisos_0__PISO16_N4 VDD_PISO64_4 VSS_PISO64_4  AOI21_X1
xU118  n24___rc pisos_0__PISO16_ctr_1____rc n35 VDD_PISO64_4 VSS_PISO64_4  NOR2_X1
xU141  n95___rc n73___rc pisos_1__PISO16_N22 VDD_PISO64_4 VSS_PISO64_4  NOR2_X1
xU142  DATA_IN[61]___rc n73 VDD_PISO64_4 VSS_PISO64_4  INV_X1
xU143  n72___rc n71___rc pisos_2__PISO16_N22 VDD_PISO64_4 VSS_PISO64_4  NOR2_X1
xU144  DATA_IN[62]___rc n71 VDD_PISO64_4 VSS_PISO64_4  INV_X1
xU145  n70___rc n69___rc pisos_3__PISO16_N22 VDD_PISO64_4 VSS_PISO64_4  NOR2_X1
xU146  DATA_IN[63]___rc n69 VDD_PISO64_4 VSS_PISO64_4  INV_X1
xU147  n77___rc n76___rc pisos_0__PISO16_N22 VDD_PISO64_4 VSS_PISO64_4  NOR2_X1
xU148  DATA_IN[60]___rc n76 VDD_PISO64_4 VSS_PISO64_4  INV_X1
xU149  pisos_0__PISO16_ctr_2____rc pisos_0__PISO16_ctr_3____rc n75 VDD_PISO64_4 VSS_PISO64_4  NOR2_X1
xU150  n24___rc n68___rc n67___rc DATA_USED_OUT VDD_PISO64_4 VSS_PISO64_4  AOI21_X1
xU151  n66___rc n65___rc n67 VDD_PISO64_4 VSS_PISO64_4  AND2_X1
xU152  pisos_2__PISO16_ctr_3____rc n63 VDD_PISO64_4 VSS_PISO64_4  INV_X1
xU153  pisos_2__PISO16_ctr_2____rc n64 VDD_PISO64_4 VSS_PISO64_4  INV_X1
xU154  pisos_3__PISO16_ctr_3____rc n61 VDD_PISO64_4 VSS_PISO64_4  INV_X1
xU155  pisos_3__PISO16_ctr_2____rc n62 VDD_PISO64_4 VSS_PISO64_4  INV_X1
xU156  n60___rc n59___rc n68 VDD_PISO64_4 VSS_PISO64_4  AND2_X1
xU157  pisos_1__PISO16_ctr_3____rc n57 VDD_PISO64_4 VSS_PISO64_4  INV_X1
xU158  pisos_1__PISO16_ctr_2____rc n58 VDD_PISO64_4 VSS_PISO64_4  INV_X1
xU159  pisos_0__PISO16_ctr_3____rc n55 VDD_PISO64_4 VSS_PISO64_4  INV_X1
xU160  pisos_0__PISO16_ctr_2____rc n56 VDD_PISO64_4 VSS_PISO64_4  INV_X1
xU162  n56___rc n55___rc pisos_0__PISO16_ctr_1____rc n60 VDD_PISO64_4 VSS_PISO64_4  NAND3_X1
xU163  n58___rc n57___rc pisos_1__PISO16_ctr_1____rc n59 VDD_PISO64_4 VSS_PISO64_4  NAND3_X1
xU164  n62___rc n61___rc pisos_3__PISO16_ctr_1____rc n66 VDD_PISO64_4 VSS_PISO64_4  NAND3_X1
xU165  n64___rc n63___rc pisos_2__PISO16_ctr_1____rc n65 VDD_PISO64_4 VSS_PISO64_4  NAND3_X1
xU166  DATA_IN[3]___rc pisos_3__PISO16_shift_register[1]___rc n70___rc pisos_3__PISO16_N7 VDD_PISO64_4 VSS_PISO64_4  MUX2_X1
xU167  DATA_IN[7]___rc pisos_3__PISO16_shift_register[2]___rc n70___rc pisos_3__PISO16_N8 VDD_PISO64_4 VSS_PISO64_4  MUX2_X1
xU168  DATA_IN[11]___rc pisos_3__PISO16_shift_register[3]___rc n70___rc pisos_3__PISO16_N9 VDD_PISO64_4 VSS_PISO64_4  MUX2_X1
xU169  DATA_IN[15]___rc pisos_3__PISO16_shift_register[4]___rc n70___rc pisos_3__PISO16_N10 VDD_PISO64_4 VSS_PISO64_4  MUX2_X1
xU170  DATA_IN[19]___rc pisos_3__PISO16_shift_register[5]___rc n70___rc pisos_3__PISO16_N11 VDD_PISO64_4 VSS_PISO64_4  MUX2_X1
xU171  DATA_IN[23]___rc pisos_3__PISO16_shift_register[6]___rc n70___rc pisos_3__PISO16_N12 VDD_PISO64_4 VSS_PISO64_4  MUX2_X1
xU172  DATA_IN[27]___rc pisos_3__PISO16_shift_register[7]___rc n70___rc pisos_3__PISO16_N13 VDD_PISO64_4 VSS_PISO64_4  MUX2_X1
xU173  DATA_IN[31]___rc pisos_3__PISO16_shift_register[8]___rc n70___rc pisos_3__PISO16_N14 VDD_PISO64_4 VSS_PISO64_4  MUX2_X1
xU174  DATA_IN[35]___rc pisos_3__PISO16_shift_register[9]___rc n70___rc pisos_3__PISO16_N15 VDD_PISO64_4 VSS_PISO64_4  MUX2_X1
xU175  DATA_IN[39]___rc pisos_3__PISO16_shift_register[10]___rc n70___rc pisos_3__PISO16_N16 VDD_PISO64_4 VSS_PISO64_4  MUX2_X1
xU176  DATA_IN[43]___rc pisos_3__PISO16_shift_register[11]___rc n70___rc pisos_3__PISO16_N17 VDD_PISO64_4 VSS_PISO64_4  MUX2_X1
xU177  DATA_IN[47]___rc pisos_3__PISO16_shift_register[12]___rc n70___rc pisos_3__PISO16_N18 VDD_PISO64_4 VSS_PISO64_4  MUX2_X1
xU178  DATA_IN[51]___rc pisos_3__PISO16_shift_register[13]___rc n70___rc pisos_3__PISO16_N19 VDD_PISO64_4 VSS_PISO64_4  MUX2_X1
xU179  DATA_IN[55]___rc pisos_3__PISO16_shift_register[14]___rc n70___rc pisos_3__PISO16_N20 VDD_PISO64_4 VSS_PISO64_4  MUX2_X1
xU180  DATA_IN[59]___rc pisos_3__PISO16_shift_register[15]___rc n70___rc pisos_3__PISO16_N21 VDD_PISO64_4 VSS_PISO64_4  MUX2_X1
xU181  DATA_IN[2]___rc pisos_2__PISO16_shift_register[1]___rc n72___rc pisos_2__PISO16_N7 VDD_PISO64_4 VSS_PISO64_4  MUX2_X1
xU182  DATA_IN[6]___rc pisos_2__PISO16_shift_register[2]___rc n72___rc pisos_2__PISO16_N8 VDD_PISO64_4 VSS_PISO64_4  MUX2_X1
xU183  DATA_IN[10]___rc pisos_2__PISO16_shift_register[3]___rc n72___rc pisos_2__PISO16_N9 VDD_PISO64_4 VSS_PISO64_4  MUX2_X1
xU184  DATA_IN[14]___rc pisos_2__PISO16_shift_register[4]___rc n72___rc pisos_2__PISO16_N10 VDD_PISO64_4 VSS_PISO64_4  MUX2_X1
xU185  DATA_IN[18]___rc pisos_2__PISO16_shift_register[5]___rc n72___rc pisos_2__PISO16_N11 VDD_PISO64_4 VSS_PISO64_4  MUX2_X1
xU186  DATA_IN[22]___rc pisos_2__PISO16_shift_register[6]___rc n72___rc pisos_2__PISO16_N12 VDD_PISO64_4 VSS_PISO64_4  MUX2_X1
xU187  DATA_IN[26]___rc pisos_2__PISO16_shift_register[7]___rc n72___rc pisos_2__PISO16_N13 VDD_PISO64_4 VSS_PISO64_4  MUX2_X1
xU188  DATA_IN[30]___rc pisos_2__PISO16_shift_register[8]___rc n72___rc pisos_2__PISO16_N14 VDD_PISO64_4 VSS_PISO64_4  MUX2_X1
xU189  DATA_IN[34]___rc pisos_2__PISO16_shift_register[9]___rc n72___rc pisos_2__PISO16_N15 VDD_PISO64_4 VSS_PISO64_4  MUX2_X1
xU190  DATA_IN[38]___rc pisos_2__PISO16_shift_register[10]___rc n72___rc pisos_2__PISO16_N16 VDD_PISO64_4 VSS_PISO64_4  MUX2_X1
xU191  DATA_IN[42]___rc pisos_2__PISO16_shift_register[11]___rc n72___rc pisos_2__PISO16_N17 VDD_PISO64_4 VSS_PISO64_4  MUX2_X1
xU192  DATA_IN[46]___rc pisos_2__PISO16_shift_register[12]___rc n72___rc pisos_2__PISO16_N18 VDD_PISO64_4 VSS_PISO64_4  MUX2_X1
xU193  DATA_IN[50]___rc pisos_2__PISO16_shift_register[13]___rc n72___rc pisos_2__PISO16_N19 VDD_PISO64_4 VSS_PISO64_4  MUX2_X1
xU194  DATA_IN[54]___rc pisos_2__PISO16_shift_register[14]___rc n72___rc pisos_2__PISO16_N20 VDD_PISO64_4 VSS_PISO64_4  MUX2_X1
xU195  DATA_IN[58]___rc pisos_2__PISO16_shift_register[15]___rc n72___rc pisos_2__PISO16_N21 VDD_PISO64_4 VSS_PISO64_4  MUX2_X1
xU196  DATA_IN[1]___rc pisos_1__PISO16_shift_register[1]___rc n95___rc pisos_1__PISO16_N7 VDD_PISO64_4 VSS_PISO64_4  MUX2_X1
xU197  DATA_IN[5]___rc pisos_1__PISO16_shift_register[2]___rc n95___rc pisos_1__PISO16_N8 VDD_PISO64_4 VSS_PISO64_4  MUX2_X1
xU198  DATA_IN[9]___rc pisos_1__PISO16_shift_register[3]___rc n95___rc pisos_1__PISO16_N9 VDD_PISO64_4 VSS_PISO64_4  MUX2_X1
xU199  DATA_IN[13]___rc pisos_1__PISO16_shift_register[4]___rc n95___rc pisos_1__PISO16_N10 VDD_PISO64_4 VSS_PISO64_4  MUX2_X1
xU200  DATA_IN[17]___rc pisos_1__PISO16_shift_register[5]___rc n95___rc pisos_1__PISO16_N11 VDD_PISO64_4 VSS_PISO64_4  MUX2_X1
xU201  DATA_IN[21]___rc pisos_1__PISO16_shift_register[6]___rc n95___rc pisos_1__PISO16_N12 VDD_PISO64_4 VSS_PISO64_4  MUX2_X1
xU202  DATA_IN[25]___rc pisos_1__PISO16_shift_register[7]___rc n95___rc pisos_1__PISO16_N13 VDD_PISO64_4 VSS_PISO64_4  MUX2_X1
xU203  DATA_IN[29]___rc pisos_1__PISO16_shift_register[8]___rc n95___rc pisos_1__PISO16_N14 VDD_PISO64_4 VSS_PISO64_4  MUX2_X1
xU204  DATA_IN[33]___rc pisos_1__PISO16_shift_register[9]___rc n95___rc pisos_1__PISO16_N15 VDD_PISO64_4 VSS_PISO64_4  MUX2_X1
xU205  DATA_IN[37]___rc pisos_1__PISO16_shift_register[10]___rc n95___rc pisos_1__PISO16_N16 VDD_PISO64_4 VSS_PISO64_4  MUX2_X1
xU206  DATA_IN[41]___rc pisos_1__PISO16_shift_register[11]___rc n95___rc pisos_1__PISO16_N17 VDD_PISO64_4 VSS_PISO64_4  MUX2_X1
xU207  DATA_IN[45]___rc pisos_1__PISO16_shift_register[12]___rc n95___rc pisos_1__PISO16_N18 VDD_PISO64_4 VSS_PISO64_4  MUX2_X1
xU208  DATA_IN[49]___rc pisos_1__PISO16_shift_register[13]___rc n95___rc pisos_1__PISO16_N19 VDD_PISO64_4 VSS_PISO64_4  MUX2_X1
xU209  DATA_IN[53]___rc pisos_1__PISO16_shift_register[14]___rc n95___rc pisos_1__PISO16_N20 VDD_PISO64_4 VSS_PISO64_4  MUX2_X1
xU210  DATA_IN[57]___rc pisos_1__PISO16_shift_register[15]___rc n95___rc pisos_1__PISO16_N21 VDD_PISO64_4 VSS_PISO64_4  MUX2_X1
xU211  DATA_IN[0]___rc pisos_0__PISO16_shift_register[1]___rc n77___rc pisos_0__PISO16_N7 VDD_PISO64_4 VSS_PISO64_4  MUX2_X1
xU212  DATA_IN[4]___rc pisos_0__PISO16_shift_register[2]___rc n77___rc pisos_0__PISO16_N8 VDD_PISO64_4 VSS_PISO64_4  MUX2_X1
xU213  DATA_IN[8]___rc pisos_0__PISO16_shift_register[3]___rc n77___rc pisos_0__PISO16_N9 VDD_PISO64_4 VSS_PISO64_4  MUX2_X1
xU214  DATA_IN[12]___rc pisos_0__PISO16_shift_register[4]___rc n77___rc pisos_0__PISO16_N10 VDD_PISO64_4 VSS_PISO64_4  MUX2_X1
xU215  DATA_IN[16]___rc pisos_0__PISO16_shift_register[5]___rc n77___rc pisos_0__PISO16_N11 VDD_PISO64_4 VSS_PISO64_4  MUX2_X1
xU216  DATA_IN[20]___rc pisos_0__PISO16_shift_register[6]___rc n77___rc pisos_0__PISO16_N12 VDD_PISO64_4 VSS_PISO64_4  MUX2_X1
xU217  DATA_IN[24]___rc pisos_0__PISO16_shift_register[7]___rc n77___rc pisos_0__PISO16_N13 VDD_PISO64_4 VSS_PISO64_4  MUX2_X1
xU218  DATA_IN[28]___rc pisos_0__PISO16_shift_register[8]___rc n77___rc pisos_0__PISO16_N14 VDD_PISO64_4 VSS_PISO64_4  MUX2_X1
xU219  DATA_IN[32]___rc pisos_0__PISO16_shift_register[9]___rc n77___rc pisos_0__PISO16_N15 VDD_PISO64_4 VSS_PISO64_4  MUX2_X1
xU220  DATA_IN[36]___rc pisos_0__PISO16_shift_register[10]___rc n77___rc pisos_0__PISO16_N16 VDD_PISO64_4 VSS_PISO64_4  MUX2_X1
xU221  DATA_IN[40]___rc pisos_0__PISO16_shift_register[11]___rc n77___rc pisos_0__PISO16_N17 VDD_PISO64_4 VSS_PISO64_4  MUX2_X1
xU222  DATA_IN[44]___rc pisos_0__PISO16_shift_register[12]___rc n77___rc pisos_0__PISO16_N18 VDD_PISO64_4 VSS_PISO64_4  MUX2_X1
xU223  DATA_IN[48]___rc pisos_0__PISO16_shift_register[13]___rc n77___rc pisos_0__PISO16_N19 VDD_PISO64_4 VSS_PISO64_4  MUX2_X1
xU224  DATA_IN[52]___rc pisos_0__PISO16_shift_register[14]___rc n77___rc pisos_0__PISO16_N20 VDD_PISO64_4 VSS_PISO64_4  MUX2_X1
xU225  DATA_IN[56]___rc pisos_0__PISO16_shift_register[15]___rc n77___rc pisos_0__PISO16_N21 VDD_PISO64_4 VSS_PISO64_4  MUX2_X1
xU228  n24___rc pisos_0__PISO16_ctr_1____rc n80 VDD_PISO64_4 VSS_PISO64_4  NAND2_X1
xU229  n82___rc n56___rc n80___rc pisos_0__PISO16_N5 VDD_PISO64_4 VSS_PISO64_4  AOI21_X1
xU230  pisos_0__PISO16_ctr_3____rc n82___rc pisos_0__PISO16_N6 VDD_PISO64_4 VSS_PISO64_4  XOR2_X1
xU233  n24___rc pisos_1__PISO16_ctr_1____rc n84 VDD_PISO64_4 VSS_PISO64_4  NAND2_X1
xU234  n86___rc n58___rc n84___rc pisos_1__PISO16_N5 VDD_PISO64_4 VSS_PISO64_4  AOI21_X1
xU235  pisos_1__PISO16_ctr_3____rc n86___rc pisos_1__PISO16_N6 VDD_PISO64_4 VSS_PISO64_4  XOR2_X1
xU238  n24___rc pisos_2__PISO16_ctr_1____rc n88 VDD_PISO64_4 VSS_PISO64_4  NAND2_X1
xU239  n90___rc n64___rc n88___rc pisos_2__PISO16_N5 VDD_PISO64_4 VSS_PISO64_4  AOI21_X1
xU240  pisos_2__PISO16_ctr_3____rc n90___rc pisos_2__PISO16_N6 VDD_PISO64_4 VSS_PISO64_4  XOR2_X1
xU243  n24___rc pisos_3__PISO16_ctr_1____rc n92 VDD_PISO64_4 VSS_PISO64_4  NAND2_X1
xU244  n94___rc n62___rc n92___rc pisos_3__PISO16_N5 VDD_PISO64_4 VSS_PISO64_4  AOI21_X1
xU245  pisos_3__PISO16_ctr_3____rc n94___rc pisos_3__PISO16_N6 VDD_PISO64_4 VSS_PISO64_4  XOR2_X1
xpisos_3__PISO16_ctr_reg_0_  pisos_3__PISO16_N3___rc n112___rc n114___rc pisos_3__PISO16_ctr_0_ pisos_3__PISO16_N3 VDD_PISO64_4 VSS_PISO64_4  DFFR_X1
xU121  n80___rc n56___rc n82 VDD_PISO64_4 VSS_PISO64_4  NOR2_X1
xU123  n84___rc n58___rc n86 VDD_PISO64_4 VSS_PISO64_4  NOR2_X1
xU125  n64___rc n88___rc n90 VDD_PISO64_4 VSS_PISO64_4  NOR2_X1
xU127  n62___rc n92___rc n94 VDD_PISO64_4 VSS_PISO64_4  NOR2_X1
xU98  n34___rc pisos_3__PISO16_ctr_0____rc n78 VDD_PISO64_4 VSS_PISO64_4  AND2_X1
xU104  n30___rc n29___rc pisos_3__PISO16_ctr_0____rc n28 VDD_PISO64_4 VSS_PISO64_4  AND3_X1
xU119  pisos_0__PISO16_ctr_1____rc n34 VDD_PISO64_4 VSS_PISO64_4  INV_X1
xU101  pisos_1__PISO16_ctr_1____rc n27 VDD_PISO64_4 VSS_PISO64_4  INV_X1
xU105  pisos_2__PISO16_ctr_1____rc n30 VDD_PISO64_4 VSS_PISO64_4  INV_X1
xU106  pisos_2__PISO16_ctr_2____rc pisos_2__PISO16_ctr_3____rc n29 VDD_PISO64_4 VSS_PISO64_4  NOR2_X1
xU97  pisos_3__PISO16_ctr_0____rc n24 VDD_PISO64_4 VSS_PISO64_4  BUF_X2
xU109  pisos_3__PISO16_ctr_1____rc n33 VDD_PISO64_4 VSS_PISO64_4  INV_X1
xU110  pisos_3__PISO16_ctr_2____rc pisos_3__PISO16_ctr_3____rc n32 VDD_PISO64_4 VSS_PISO64_4  NOR2_X1
xU108  n33___rc n32___rc pisos_3__PISO16_ctr_0____rc n31 VDD_PISO64_4 VSS_PISO64_4  AND3_X1
xU140  n27___rc n26___rc pisos_3__PISO16_ctr_0____rc n95 VDD_PISO64_4 VSS_PISO64_4  NAND3_X2
xU226  n106___rc n111 VDD_PISO64_4 VSS_PISO64_4  INV_X2
xU232  n106___rc n109 VDD_PISO64_4 VSS_PISO64_4  INV_X2
xU227  n106___rc n110 VDD_PISO64_4 VSS_PISO64_4  INV_X2
xU161  CLK_IN___rc n114 VDD_PISO64_4 VSS_PISO64_4  BUF_X8
xU128  n78___rc n75___rc n77 VDD_PISO64_4 VSS_PISO64_4  NAND2_X2
xU103  n28___rc n72 VDD_PISO64_4 VSS_PISO64_4  INV_X2
xU107  n31___rc n70 VDD_PISO64_4 VSS_PISO64_4  INV_X2
xU242  RESET_IN___rc n108 VDD_PISO64_4 VSS_PISO64_4  BUF_X1
xU102  pisos_1__PISO16_ctr_2____rc pisos_1__PISO16_ctr_3____rc n26 VDD_PISO64_4 VSS_PISO64_4  NOR2_X1
xU237  n108___rc n112 VDD_PISO64_4 VSS_PISO64_4  INV_X4
xU139  CLK_IN___rc n115 VDD_PISO64_4 VSS_PISO64_4  BUF_X4
xU246  RESET_IN___rc n106 VDD_PISO64_4 VSS_PISO64_4  BUF_X2
*** Estimated net resistances from Design Compiler
r1 CLK_IN CLK_IN___rc 68.0
r2 DATA_IN[0] DATA_IN[0]___rc 16.0
r3 DATA_IN[10] DATA_IN[10]___rc 11.0
r4 DATA_IN[11] DATA_IN[11]___rc 29.0
r5 DATA_IN[12] DATA_IN[12]___rc 39.0
r6 DATA_IN[13] DATA_IN[13]___rc 28.0
r7 DATA_IN[14] DATA_IN[14]___rc 8.0
r8 DATA_IN[15] DATA_IN[15]___rc 49.0
r9 DATA_IN[16] DATA_IN[16]___rc 19.0
r10 DATA_IN[17] DATA_IN[17]___rc 14.0
r11 DATA_IN[18] DATA_IN[18]___rc 15.0
r12 DATA_IN[19] DATA_IN[19]___rc 29.0
r13 DATA_IN[1] DATA_IN[1]___rc 6.0
r14 DATA_IN[20] DATA_IN[20]___rc 6.0
r15 DATA_IN[21] DATA_IN[21]___rc 7.0
r16 DATA_IN[22] DATA_IN[22]___rc 12.0
r17 DATA_IN[23] DATA_IN[23]___rc 24.0
r18 DATA_IN[24] DATA_IN[24]___rc 29.0
r19 DATA_IN[25] DATA_IN[25]___rc 14.0
r20 DATA_IN[26] DATA_IN[26]___rc 17.0
r21 DATA_IN[27] DATA_IN[27]___rc 5.0
r22 DATA_IN[28] DATA_IN[28]___rc 24.0
r23 DATA_IN[29] DATA_IN[29]___rc 10.0
r24 DATA_IN[2] DATA_IN[2]___rc 5.0
r25 DATA_IN[30] DATA_IN[30]___rc 34.0
r26 DATA_IN[31] DATA_IN[31]___rc 27.0
r27 DATA_IN[32] DATA_IN[32]___rc 27.0
r28 DATA_IN[33] DATA_IN[33]___rc 32.0
r29 DATA_IN[34] DATA_IN[34]___rc 8.0
r30 DATA_IN[35] DATA_IN[35]___rc 24.0
r31 DATA_IN[36] DATA_IN[36]___rc 43.0