*** 
***  Copyright 2003-2013, University of Cambridge, Computer Laboratory. 
***  Copyright and related rights are licensed under the Hardware License, 
***  Version 2.0 (the "License"); you may not use this file except in 
***  compliance with the License. You may obtain a copy of the License at
***  http://www.cl.cam.ac.uk/research/srg/netos/greenict/projects/contest/. 
***  Unless required by applicable law or agreed to in writing, software, 
***  hardware and materials distributed under this License is distributed 
***  on an "AS IS" BASIS, WITHOUT WARRANTIES OR CONDITIONS OF ANY KIND,
***  either express or implied. See the License for the specific language
***  governing permissions and limitations under the License.
*** 
*** 

*** SPICE structural netlist of 'SIPO4_64' after Design Compiler synthesis, based on port order in '/usr/groups/ecad/kits/commercial45_v2010_12/n45-library-netlist-noparasitics.spi' ***

.SUBCKT SIPO4_64 VDD_SIPO4_64 VSS_SIPO4_64 CLK_IN RESET_IN SERIAL_IN[0] SERIAL_IN[1] SERIAL_IN[2] SERIAL_IN[3] DATA_USED_OUT PARALLEL_OUT[0] PARALLEL_OUT[1] PARALLEL_OUT[2] PARALLEL_OUT[3] PARALLEL_OUT[4] PARALLEL_OUT[5] PARALLEL_OUT[6] PARALLEL_OUT[7] PARALLEL_OUT[8] PARALLEL_OUT[9] PARALLEL_OUT[10] PARALLEL_OUT[11] PARALLEL_OUT[12] PARALLEL_OUT[13] PARALLEL_OUT[14] PARALLEL_OUT[15] PARALLEL_OUT[16] PARALLEL_OUT[17] PARALLEL_OUT[18] PARALLEL_OUT[19] PARALLEL_OUT[20] PARALLEL_OUT[21] PARALLEL_OUT[22] PARALLEL_OUT[23] PARALLEL_OUT[24] PARALLEL_OUT[25] PARALLEL_OUT[26] PARALLEL_OUT[27] PARALLEL_OUT[28] PARALLEL_OUT[29] PARALLEL_OUT[30] PARALLEL_OUT[31] PARALLEL_OUT[32] PARALLEL_OUT[33] PARALLEL_OUT[34] PARALLEL_OUT[35] PARALLEL_OUT[36] PARALLEL_OUT[37] PARALLEL_OUT[38] PARALLEL_OUT[39] PARALLEL_OUT[40] PARALLEL_OUT[41] PARALLEL_OUT[42] PARALLEL_OUT[43] PARALLEL_OUT[44] PARALLEL_OUT[45] PARALLEL_OUT[46] PARALLEL_OUT[47] PARALLEL_OUT[48] PARALLEL_OUT[49] PARALLEL_OUT[50] PARALLEL_OUT[51] PARALLEL_OUT[52] PARALLEL_OUT[53] PARALLEL_OUT[54] PARALLEL_OUT[55] PARALLEL_OUT[56] PARALLEL_OUT[57] PARALLEL_OUT[58] PARALLEL_OUT[59] PARALLEL_OUT[60] PARALLEL_OUT[61] PARALLEL_OUT[62] PARALLEL_OUT[63]
*** instances
xpisos_0__SP1_16_shift_reg_reg_15_  SERIAL_IN[0]___rc n575___rc n585___rc pisos_0__SP1_16_shift_reg_15_ n91 VDD_SIPO4_64 VSS_SIPO4_64  DFFR_X1
xpisos_0__SP1_16_shift_reg_reg_14_  pisos_0__SP1_16_shift_reg_15____rc n577___rc n585___rc pisos_0__SP1_16_shift_reg_14_ n90 VDD_SIPO4_64 VSS_SIPO4_64  DFFR_X1
xpisos_0__SP1_16_shift_reg_reg_13_  pisos_0__SP1_16_shift_reg_14____rc n575___rc n585___rc pisos_0__SP1_16_shift_reg_13_ n89 VDD_SIPO4_64 VSS_SIPO4_64  DFFR_X1
xpisos_0__SP1_16_shift_reg_reg_12_  pisos_0__SP1_16_shift_reg_13____rc n575___rc n585___rc pisos_0__SP1_16_shift_reg_12_ n88 VDD_SIPO4_64 VSS_SIPO4_64  DFFR_X1
xpisos_0__SP1_16_shift_reg_reg_11_  pisos_0__SP1_16_shift_reg_12____rc n575___rc n585___rc pisos_0__SP1_16_shift_reg_11_ n87 VDD_SIPO4_64 VSS_SIPO4_64  DFFR_X1
xpisos_0__SP1_16_shift_reg_reg_10_  pisos_0__SP1_16_shift_reg_11____rc n575___rc n585___rc pisos_0__SP1_16_shift_reg_10_ n86 VDD_SIPO4_64 VSS_SIPO4_64  DFFR_X1
xpisos_0__SP1_16_shift_reg_reg_9_  pisos_0__SP1_16_shift_reg_10____rc n575___rc n585___rc pisos_0__SP1_16_shift_reg_9_ n85 VDD_SIPO4_64 VSS_SIPO4_64  DFFR_X1
xpisos_0__SP1_16_shift_reg_reg_8_  pisos_0__SP1_16_shift_reg_9____rc n576___rc n585___rc pisos_0__SP1_16_shift_reg_8_ n84 VDD_SIPO4_64 VSS_SIPO4_64  DFFR_X1
xpisos_0__SP1_16_shift_reg_reg_7_  pisos_0__SP1_16_shift_reg_8____rc n575___rc n585___rc pisos_0__SP1_16_shift_reg_7_ n83 VDD_SIPO4_64 VSS_SIPO4_64  DFFR_X1
xpisos_0__SP1_16_shift_reg_reg_6_  pisos_0__SP1_16_shift_reg_7____rc n577___rc n585___rc pisos_0__SP1_16_shift_reg_6_ n82 VDD_SIPO4_64 VSS_SIPO4_64  DFFR_X1
xpisos_0__SP1_16_shift_reg_reg_5_  pisos_0__SP1_16_shift_reg_6____rc n577___rc n585___rc pisos_0__SP1_16_shift_reg_5_ n81 VDD_SIPO4_64 VSS_SIPO4_64  DFFR_X1
xpisos_0__SP1_16_shift_reg_reg_4_  pisos_0__SP1_16_shift_reg_5____rc n577___rc n585___rc pisos_0__SP1_16_shift_reg_4_ n80 VDD_SIPO4_64 VSS_SIPO4_64  DFFR_X1
xpisos_0__SP1_16_shift_reg_reg_3_  pisos_0__SP1_16_shift_reg_4____rc n577___rc n585___rc pisos_0__SP1_16_shift_reg_3_ n79 VDD_SIPO4_64 VSS_SIPO4_64  DFFR_X1
xpisos_0__SP1_16_shift_reg_reg_2_  pisos_0__SP1_16_shift_reg_3____rc n577___rc n585___rc pisos_0__SP1_16_shift_reg_2_ n78 VDD_SIPO4_64 VSS_SIPO4_64  DFFR_X1
xpisos_0__SP1_16_shift_reg_reg_1_  pisos_0__SP1_16_shift_reg_2____rc n577___rc n585___rc pisos_0__SP1_16_shift_reg_1_ n77 VDD_SIPO4_64 VSS_SIPO4_64  DFFR_X1
xpisos_0__SP1_16_shift_reg_reg_0_  pisos_0__SP1_16_shift_reg_1____rc n575___rc n585___rc SPICE_NETLIST_UNCONNECTED_1 n74 VDD_SIPO4_64 VSS_SIPO4_64  DFFR_X1
xpisos_1__SP1_16_shift_reg_reg_15_  SERIAL_IN[1]___rc n576___rc n585___rc pisos_1__SP1_16_shift_reg_15_ n109 VDD_SIPO4_64 VSS_SIPO4_64  DFFR_X1
xpisos_1__SP1_16_shift_reg_reg_14_  pisos_1__SP1_16_shift_reg_15____rc n577___rc n585___rc pisos_1__SP1_16_shift_reg_14_ n108 VDD_SIPO4_64 VSS_SIPO4_64  DFFR_X1
xpisos_1__SP1_16_shift_reg_reg_13_  pisos_1__SP1_16_shift_reg_14____rc n576___rc n585___rc pisos_1__SP1_16_shift_reg_13_ n107 VDD_SIPO4_64 VSS_SIPO4_64  DFFR_X1
xpisos_1__SP1_16_shift_reg_reg_12_  pisos_1__SP1_16_shift_reg_13____rc n576___rc n585___rc pisos_1__SP1_16_shift_reg_12_ n106 VDD_SIPO4_64 VSS_SIPO4_64  DFFR_X1
xpisos_1__SP1_16_shift_reg_reg_11_  pisos_1__SP1_16_shift_reg_12____rc n576___rc n585___rc pisos_1__SP1_16_shift_reg_11_ n105 VDD_SIPO4_64 VSS_SIPO4_64  DFFR_X1
xpisos_1__SP1_16_shift_reg_reg_10_  pisos_1__SP1_16_shift_reg_11____rc n576___rc n585___rc pisos_1__SP1_16_shift_reg_10_ n104 VDD_SIPO4_64 VSS_SIPO4_64  DFFR_X1
xpisos_1__SP1_16_shift_reg_reg_9_  pisos_1__SP1_16_shift_reg_10____rc n577___rc n585___rc pisos_1__SP1_16_shift_reg_9_ n103 VDD_SIPO4_64 VSS_SIPO4_64  DFFR_X1
xpisos_1__SP1_16_shift_reg_reg_8_  pisos_1__SP1_16_shift_reg_9____rc n577___rc n585___rc pisos_1__SP1_16_shift_reg_8_ n102 VDD_SIPO4_64 VSS_SIPO4_64  DFFR_X1
xpisos_1__SP1_16_shift_reg_reg_7_  pisos_1__SP1_16_shift_reg_8____rc n576___rc n585___rc pisos_1__SP1_16_shift_reg_7_ n101 VDD_SIPO4_64 VSS_SIPO4_64  DFFR_X1
xpisos_1__SP1_16_shift_reg_reg_6_  pisos_1__SP1_16_shift_reg_7____rc n577___rc n585___rc pisos_1__SP1_16_shift_reg_6_ n100 VDD_SIPO4_64 VSS_SIPO4_64  DFFR_X1
xpisos_1__SP1_16_shift_reg_reg_5_  pisos_1__SP1_16_shift_reg_6____rc n576___rc n585___rc pisos_1__SP1_16_shift_reg_5_ n99 VDD_SIPO4_64 VSS_SIPO4_64  DFFR_X1
xpisos_1__SP1_16_shift_reg_reg_4_  pisos_1__SP1_16_shift_reg_5____rc n576___rc n585___rc pisos_1__SP1_16_shift_reg_4_ n98 VDD_SIPO4_64 VSS_SIPO4_64  DFFR_X1
xpisos_1__SP1_16_shift_reg_reg_3_  pisos_1__SP1_16_shift_reg_4____rc n575___rc n585___rc pisos_1__SP1_16_shift_reg_3_ n97 VDD_SIPO4_64 VSS_SIPO4_64  DFFR_X1
xpisos_1__SP1_16_shift_reg_reg_2_  pisos_1__SP1_16_shift_reg_3____rc n576___rc n585___rc pisos_1__SP1_16_shift_reg_2_ n96 VDD_SIPO4_64 VSS_SIPO4_64  DFFR_X1
xpisos_1__SP1_16_shift_reg_reg_1_  pisos_1__SP1_16_shift_reg_2____rc n577___rc n585___rc pisos_1__SP1_16_shift_reg_1_ n95 VDD_SIPO4_64 VSS_SIPO4_64  DFFR_X1
xpisos_1__SP1_16_shift_reg_reg_0_  pisos_1__SP1_16_shift_reg_1____rc n575___rc n585___rc SPICE_NETLIST_UNCONNECTED_2 n92 VDD_SIPO4_64 VSS_SIPO4_64  DFFR_X1
xpisos_2__SP1_16_shift_reg_reg_15_  SERIAL_IN[2]___rc n576___rc n584___rc pisos_2__SP1_16_shift_reg_15_ n127 VDD_SIPO4_64 VSS_SIPO4_64  DFFR_X1
xpisos_2__SP1_16_shift_reg_reg_14_  pisos_2__SP1_16_shift_reg_15____rc n572___rc n584___rc pisos_2__SP1_16_shift_reg_14_ n126 VDD_SIPO4_64 VSS_SIPO4_64  DFFR_X1
xpisos_2__SP1_16_shift_reg_reg_13_  pisos_2__SP1_16_shift_reg_14____rc n573___rc n584___rc pisos_2__SP1_16_shift_reg_13_ n125 VDD_SIPO4_64 VSS_SIPO4_64  DFFR_X1
xpisos_2__SP1_16_shift_reg_reg_12_  pisos_2__SP1_16_shift_reg_13____rc n572___rc n584___rc pisos_2__SP1_16_shift_reg_12_ n124 VDD_SIPO4_64 VSS_SIPO4_64  DFFR_X1
xpisos_2__SP1_16_shift_reg_reg_11_  pisos_2__SP1_16_shift_reg_12____rc n572___rc n584___rc pisos_2__SP1_16_shift_reg_11_ n123 VDD_SIPO4_64 VSS_SIPO4_64  DFFR_X1
xpisos_2__SP1_16_shift_reg_reg_10_  pisos_2__SP1_16_shift_reg_11____rc n574___rc n584___rc pisos_2__SP1_16_shift_reg_10_ n122 VDD_SIPO4_64 VSS_SIPO4_64  DFFR_X1
xpisos_2__SP1_16_shift_reg_reg_9_  pisos_2__SP1_16_shift_reg_10____rc n574___rc n584___rc pisos_2__SP1_16_shift_reg_9_ n121 VDD_SIPO4_64 VSS_SIPO4_64  DFFR_X1
xpisos_2__SP1_16_shift_reg_reg_8_  pisos_2__SP1_16_shift_reg_9____rc n574___rc n584___rc pisos_2__SP1_16_shift_reg_8_ n120 VDD_SIPO4_64 VSS_SIPO4_64  DFFR_X1
xpisos_2__SP1_16_shift_reg_reg_7_  pisos_2__SP1_16_shift_reg_8____rc n574___rc n584___rc pisos_2__SP1_16_shift_reg_7_ n119 VDD_SIPO4_64 VSS_SIPO4_64  DFFR_X1
xpisos_2__SP1_16_shift_reg_reg_6_  pisos_2__SP1_16_shift_reg_7____rc n574___rc n584___rc pisos_2__SP1_16_shift_reg_6_ n118 VDD_SIPO4_64 VSS_SIPO4_64  DFFR_X1
xpisos_2__SP1_16_shift_reg_reg_5_  pisos_2__SP1_16_shift_reg_6____rc n572___rc n584___rc pisos_2__SP1_16_shift_reg_5_ n117 VDD_SIPO4_64 VSS_SIPO4_64  DFFR_X1
xpisos_2__SP1_16_shift_reg_reg_4_  pisos_2__SP1_16_shift_reg_5____rc n573___rc n584___rc pisos_2__SP1_16_shift_reg_4_ n116 VDD_SIPO4_64 VSS_SIPO4_64  DFFR_X1
xpisos_2__SP1_16_shift_reg_reg_3_  pisos_2__SP1_16_shift_reg_4____rc n574___rc n584___rc pisos_2__SP1_16_shift_reg_3_ n115 VDD_SIPO4_64 VSS_SIPO4_64  DFFR_X1
xpisos_2__SP1_16_shift_reg_reg_2_  pisos_2__SP1_16_shift_reg_3____rc n573___rc n584___rc pisos_2__SP1_16_shift_reg_2_ n114 VDD_SIPO4_64 VSS_SIPO4_64  DFFR_X1
xpisos_2__SP1_16_shift_reg_reg_1_  pisos_2__SP1_16_shift_reg_2____rc n575___rc n584___rc pisos_2__SP1_16_shift_reg_1_ n113 VDD_SIPO4_64 VSS_SIPO4_64  DFFR_X1
xpisos_2__SP1_16_shift_reg_reg_0_  pisos_2__SP1_16_shift_reg_1____rc n569___rc n584___rc SPICE_NETLIST_UNCONNECTED_3 n110 VDD_SIPO4_64 VSS_SIPO4_64  DFFR_X1
xpisos_0__SP1_16_ctr_reg_1_  pisos_0__SP1_16_N2___rc n569___rc n584___rc pisos_0__SP1_16_ctr_1_ SPICE_NETLIST_UNCONNECTED_4 VDD_SIPO4_64 VSS_SIPO4_64  DFFR_X1
xpisos_0__SP1_16_ctr_reg_2_  pisos_0__SP1_16_N3___rc n569___rc n584___rc pisos_0__SP1_16_ctr_2_ SPICE_NETLIST_UNCONNECTED_5 VDD_SIPO4_64 VSS_SIPO4_64  DFFR_X1
xpisos_0__SP1_16_ctr_reg_3_  pisos_0__SP1_16_N4___rc n572___rc n584___rc pisos_0__SP1_16_ctr_3_ SPICE_NETLIST_UNCONNECTED_6 VDD_SIPO4_64 VSS_SIPO4_64  DFFR_X1
xpisos_0__SP1_16_PARALLEL_OUT_reg_0_  n209___rc n569___rc n584___rc PARALLEL_OUT[0] SPICE_NETLIST_UNCONNECTED_7 VDD_SIPO4_64 VSS_SIPO4_64  DFFR_X1
xpisos_0__SP1_16_PARALLEL_OUT_reg_1_  n208___rc n569___rc n584___rc PARALLEL_OUT[4] SPICE_NETLIST_UNCONNECTED_8 VDD_SIPO4_64 VSS_SIPO4_64  DFFR_X1
xpisos_0__SP1_16_PARALLEL_OUT_reg_2_  n207___rc n569___rc n584___rc PARALLEL_OUT[8] SPICE_NETLIST_UNCONNECTED_9 VDD_SIPO4_64 VSS_SIPO4_64  DFFR_X1
xpisos_0__SP1_16_PARALLEL_OUT_reg_3_  n206___rc n569___rc n584___rc PARALLEL_OUT[12] SPICE_NETLIST_UNCONNECTED_10 VDD_SIPO4_64 VSS_SIPO4_64  DFFR_X1
xpisos_0__SP1_16_PARALLEL_OUT_reg_4_  n205___rc n569___rc n584___rc PARALLEL_OUT[16] SPICE_NETLIST_UNCONNECTED_11 VDD_SIPO4_64 VSS_SIPO4_64  DFFR_X1
xpisos_0__SP1_16_PARALLEL_OUT_reg_5_  n204___rc n572___rc n583___rc PARALLEL_OUT[20] SPICE_NETLIST_UNCONNECTED_12 VDD_SIPO4_64 VSS_SIPO4_64  DFFR_X1
xpisos_0__SP1_16_PARALLEL_OUT_reg_6_  n203___rc n572___rc n583___rc PARALLEL_OUT[24] SPICE_NETLIST_UNCONNECTED_13 VDD_SIPO4_64 VSS_SIPO4_64  DFFR_X1
xpisos_0__SP1_16_PARALLEL_OUT_reg_7_  n202___rc n572___rc n583___rc PARALLEL_OUT[28] SPICE_NETLIST_UNCONNECTED_14 VDD_SIPO4_64 VSS_SIPO4_64  DFFR_X1
xpisos_0__SP1_16_PARALLEL_OUT_reg_8_  n201___rc n572___rc n583___rc PARALLEL_OUT[32] SPICE_NETLIST_UNCONNECTED_15 VDD_SIPO4_64 VSS_SIPO4_64  DFFR_X1
xpisos_0__SP1_16_PARALLEL_OUT_reg_9_  n200___rc n572___rc n583___rc PARALLEL_OUT[36] SPICE_NETLIST_UNCONNECTED_16 VDD_SIPO4_64 VSS_SIPO4_64  DFFR_X1
xpisos_0__SP1_16_PARALLEL_OUT_reg_10_  n199___rc n572___rc n583___rc PARALLEL_OUT[40] SPICE_NETLIST_UNCONNECTED_17 VDD_SIPO4_64 VSS_SIPO4_64  DFFR_X1
xpisos_0__SP1_16_PARALLEL_OUT_reg_11_  n198___rc n572___rc n583___rc PARALLEL_OUT[44] SPICE_NETLIST_UNCONNECTED_18 VDD_SIPO4_64 VSS_SIPO4_64  DFFR_X1
xpisos_0__SP1_16_PARALLEL_OUT_reg_12_  n197___rc n572___rc n583___rc PARALLEL_OUT[48] SPICE_NETLIST_UNCONNECTED_19 VDD_SIPO4_64 VSS_SIPO4_64  DFFR_X1
xpisos_0__SP1_16_PARALLEL_OUT_reg_13_  n196___rc n573___rc n583___rc PARALLEL_OUT[52] SPICE_NETLIST_UNCONNECTED_20 VDD_SIPO4_64 VSS_SIPO4_64  DFFR_X1
xpisos_0__SP1_16_PARALLEL_OUT_reg_14_  n195___rc n572___rc n583___rc PARALLEL_OUT[56] SPICE_NETLIST_UNCONNECTED_21 VDD_SIPO4_64 VSS_SIPO4_64  DFFR_X1
xpisos_0__SP1_16_PARALLEL_OUT_reg_15_  n194___rc n572___rc n583___rc PARALLEL_OUT[60] SPICE_NETLIST_UNCONNECTED_22 VDD_SIPO4_64 VSS_SIPO4_64  DFFR_X1
xpisos_1__SP1_16_ctr_reg_1_  pisos_1__SP1_16_N2___rc n573___rc n583___rc pisos_1__SP1_16_ctr_1_ SPICE_NETLIST_UNCONNECTED_23 VDD_SIPO4_64 VSS_SIPO4_64  DFFR_X1
xpisos_1__SP1_16_ctr_reg_2_  pisos_1__SP1_16_N3___rc n572___rc n584___rc pisos_1__SP1_16_ctr_2_ SPICE_NETLIST_UNCONNECTED_24 VDD_SIPO4_64 VSS_SIPO4_64  DFFR_X1
xpisos_1__SP1_16_ctr_reg_3_  pisos_1__SP1_16_N4___rc n573___rc n584___rc pisos_1__SP1_16_ctr_3_ SPICE_NETLIST_UNCONNECTED_25 VDD_SIPO4_64 VSS_SIPO4_64  DFFR_X1
xpisos_1__SP1_16_PARALLEL_OUT_reg_0_  n193___rc n572___rc n584___rc PARALLEL_OUT[1] SPICE_NETLIST_UNCONNECTED_26 VDD_SIPO4_64 VSS_SIPO4_64  DFFR_X1
xpisos_1__SP1_16_PARALLEL_OUT_reg_1_  n192___rc n574___rc n584___rc PARALLEL_OUT[5] SPICE_NETLIST_UNCONNECTED_27 VDD_SIPO4_64 VSS_SIPO4_64  DFFR_X1
xpisos_1__SP1_16_PARALLEL_OUT_reg_2_  n191___rc n574___rc n584___rc PARALLEL_OUT[9] SPICE_NETLIST_UNCONNECTED_28 VDD_SIPO4_64 VSS_SIPO4_64  DFFR_X1
xpisos_1__SP1_16_PARALLEL_OUT_reg_3_  n190___rc n574___rc n584___rc PARALLEL_OUT[13] SPICE_NETLIST_UNCONNECTED_29 VDD_SIPO4_64 VSS_SIPO4_64  DFFR_X1
xpisos_1__SP1_16_PARALLEL_OUT_reg_4_  n189___rc n574___rc n584___rc PARALLEL_OUT[17] SPICE_NETLIST_UNCONNECTED_30 VDD_SIPO4_64 VSS_SIPO4_64  DFFR_X1
xpisos_1__SP1_16_PARALLEL_OUT_reg_5_  n188___rc n574___rc n584___rc PARALLEL_OUT[21] SPICE_NETLIST_UNCONNECTED_31 VDD_SIPO4_64 VSS_SIPO4_64  DFFR_X1
xpisos_1__SP1_16_PARALLEL_OUT_reg_6_  n187___rc n574___rc n584___rc PARALLEL_OUT[25] SPICE_NETLIST_UNCONNECTED_32 VDD_SIPO4_64 VSS_SIPO4_64  DFFR_X1
xpisos_1__SP1_16_PARALLEL_OUT_reg_7_  n186___rc n574___rc n584___rc PARALLEL_OUT[29] SPICE_NETLIST_UNCONNECTED_33 VDD_SIPO4_64 VSS_SIPO4_64  DFFR_X1
xpisos_1__SP1_16_PARALLEL_OUT_reg_8_  n185___rc n572___rc n584___rc PARALLEL_OUT[33] SPICE_NETLIST_UNCONNECTED_34 VDD_SIPO4_64 VSS_SIPO4_64  DFFR_X1
xpisos_1__SP1_16_PARALLEL_OUT_reg_9_  n184___rc n574___rc n584___rc PARALLEL_OUT[37] SPICE_NETLIST_UNCONNECTED_35 VDD_SIPO4_64 VSS_SIPO4_64  DFFR_X1
xpisos_1__SP1_16_PARALLEL_OUT_reg_10_  n183___rc n577___rc n583___rc PARALLEL_OUT[41] SPICE_NETLIST_UNCONNECTED_36 VDD_SIPO4_64 VSS_SIPO4_64  DFFR_X1
xpisos_1__SP1_16_PARALLEL_OUT_reg_11_  n182___rc n573___rc n583___rc PARALLEL_OUT[45] SPICE_NETLIST_UNCONNECTED_37 VDD_SIPO4_64 VSS_SIPO4_64  DFFR_X1
xpisos_1__SP1_16_PARALLEL_OUT_reg_12_  n181___rc n576___rc n583___rc PARALLEL_OUT[49] SPICE_NETLIST_UNCONNECTED_38 VDD_SIPO4_64 VSS_SIPO4_64  DFFR_X1
xpisos_1__SP1_16_PARALLEL_OUT_reg_13_  n180___rc n573___rc n583___rc PARALLEL_OUT[53] SPICE_NETLIST_UNCONNECTED_39 VDD_SIPO4_64 VSS_SIPO4_64  DFFR_X1
xpisos_1__SP1_16_PARALLEL_OUT_reg_14_  n179___rc n575___rc n583___rc PARALLEL_OUT[57] SPICE_NETLIST_UNCONNECTED_40 VDD_SIPO4_64 VSS_SIPO4_64  DFFR_X1
xpisos_1__SP1_16_PARALLEL_OUT_reg_15_  n178___rc n573___rc n583___rc PARALLEL_OUT[61] SPICE_NETLIST_UNCONNECTED_41 VDD_SIPO4_64 VSS_SIPO4_64  DFFR_X1
xpisos_2__SP1_16_ctr_reg_1_  pisos_2__SP1_16_N2___rc n576___rc n585___rc pisos_2__SP1_16_ctr_1_ SPICE_NETLIST_UNCONNECTED_42 VDD_SIPO4_64 VSS_SIPO4_64  DFFR_X1
xpisos_2__SP1_16_ctr_reg_2_  pisos_2__SP1_16_N3___rc n576___rc n584___rc pisos_2__SP1_16_ctr_2_ SPICE_NETLIST_UNCONNECTED_43 VDD_SIPO4_64 VSS_SIPO4_64  DFFR_X1
xpisos_2__SP1_16_ctr_reg_3_  pisos_2__SP1_16_N4___rc n575___rc n584___rc pisos_2__SP1_16_ctr_3_ SPICE_NETLIST_UNCONNECTED_44 VDD_SIPO4_64 VSS_SIPO4_64  DFFR_X1
xpisos_2__SP1_16_PARALLEL_OUT_reg_0_  n177___rc n573___rc n583___rc PARALLEL_OUT[2] SPICE_NETLIST_UNCONNECTED_45 VDD_SIPO4_64 VSS_SIPO4_64  DFFR_X1
xpisos_2__SP1_16_PARALLEL_OUT_reg_1_  n176___rc n573___rc n583___rc PARALLEL_OUT[6] SPICE_NETLIST_UNCONNECTED_46 VDD_SIPO4_64 VSS_SIPO4_64  DFFR_X1
xpisos_2__SP1_16_PARALLEL_OUT_reg_2_  n175___rc n570___rc n583___rc PARALLEL_OUT[10] SPICE_NETLIST_UNCONNECTED_47 VDD_SIPO4_64 VSS_SIPO4_64  DFFR_X1
xpisos_2__SP1_16_PARALLEL_OUT_reg_3_  n174___rc n572___rc n583___rc PARALLEL_OUT[14] SPICE_NETLIST_UNCONNECTED_48 VDD_SIPO4_64 VSS_SIPO4_64  DFFR_X1
xpisos_2__SP1_16_PARALLEL_OUT_reg_4_  n173___rc n573___rc n583___rc PARALLEL_OUT[18] SPICE_NETLIST_UNCONNECTED_49 VDD_SIPO4_64 VSS_SIPO4_64  DFFR_X1
xpisos_2__SP1_16_PARALLEL_OUT_reg_5_  n172___rc n572___rc n583___rc PARALLEL_OUT[22] SPICE_NETLIST_UNCONNECTED_50 VDD_SIPO4_64 VSS_SIPO4_64  DFFR_X1
xpisos_2__SP1_16_PARALLEL_OUT_reg_6_  n171___rc n572___rc n583___rc PARALLEL_OUT[26] SPICE_NETLIST_UNCONNECTED_51 VDD_SIPO4_64 VSS_SIPO4_64  DFFR_X1
xpisos_2__SP1_16_PARALLEL_OUT_reg_7_  n170___rc n572___rc n583___rc PARALLEL_OUT[30] SPICE_NETLIST_UNCONNECTED_52 VDD_SIPO4_64 VSS_SIPO4_64  DFFR_X1
xpisos_2__SP1_16_PARALLEL_OUT_reg_8_  n169___rc n572___rc n583___rc PARALLEL_OUT[34] SPICE_NETLIST_UNCONNECTED_53 VDD_SIPO4_64 VSS_SIPO4_64  DFFR_X1
xpisos_2__SP1_16_PARALLEL_OUT_reg_9_  n168___rc n573___rc n583___rc PARALLEL_OUT[38] SPICE_NETLIST_UNCONNECTED_54 VDD_SIPO4_64 VSS_SIPO4_64  DFFR_X1
xpisos_2__SP1_16_PARALLEL_OUT_reg_10_  n167___rc n572___rc n583___rc PARALLEL_OUT[42] SPICE_NETLIST_UNCONNECTED_55 VDD_SIPO4_64 VSS_SIPO4_64  DFFR_X1
xpisos_2__SP1_16_PARALLEL_OUT_reg_11_  n166___rc n572___rc n583___rc PARALLEL_OUT[46] SPICE_NETLIST_UNCONNECTED_56 VDD_SIPO4_64 VSS_SIPO4_64  DFFR_X1
xpisos_2__SP1_16_PARALLEL_OUT_reg_12_  n165___rc n572___rc n583___rc PARALLEL_OUT[50] SPICE_NETLIST_UNCONNECTED_57 VDD_SIPO4_64 VSS_SIPO4_64  DFFR_X1
xpisos_2__SP1_16_PARALLEL_OUT_reg_13_  n164___rc n573___rc n583___rc PARALLEL_OUT[54] SPICE_NETLIST_UNCONNECTED_58 VDD_SIPO4_64 VSS_SIPO4_64  DFFR_X1
xpisos_2__SP1_16_PARALLEL_OUT_reg_14_  n163___rc n572___rc n583___rc PARALLEL_OUT[58] SPICE_NETLIST_UNCONNECTED_59 VDD_SIPO4_64 VSS_SIPO4_64  DFFR_X1
xpisos_2__SP1_16_PARALLEL_OUT_reg_15_  n162___rc n570___rc n582___rc PARALLEL_OUT[62] SPICE_NETLIST_UNCONNECTED_60 VDD_SIPO4_64 VSS_SIPO4_64  DFFR_X1
xpisos_3__SP1_16_ctr_reg_1_  pisos_3__SP1_16_N2___rc n577___rc n585___rc pisos_3__SP1_16_ctr_1_ SPICE_NETLIST_UNCONNECTED_61 VDD_SIPO4_64 VSS_SIPO4_64  DFFR_X1
xpisos_3__SP1_16_ctr_reg_2_  pisos_3__SP1_16_N3___rc n576___rc n585___rc pisos_3__SP1_16_ctr_2_ SPICE_NETLIST_UNCONNECTED_62 VDD_SIPO4_64 VSS_SIPO4_64  DFFR_X1
xpisos_3__SP1_16_ctr_reg_3_  pisos_3__SP1_16_N4___rc n575___rc n585___rc pisos_3__SP1_16_ctr_3_ SPICE_NETLIST_UNCONNECTED_63 VDD_SIPO4_64 VSS_SIPO4_64  DFFR_X1
xpisos_3__SP1_16_shift_reg_reg_15_  SERIAL_IN[3]___rc n570___rc n582___rc pisos_3__SP1_16_shift_reg_15_ n145 VDD_SIPO4_64 VSS_SIPO4_64  DFFR_X1
xpisos_3__SP1_16_shift_reg_reg_14_  pisos_3__SP1_16_shift_reg_15____rc n571___rc n582___rc pisos_3__SP1_16_shift_reg_14_ n144 VDD_SIPO4_64 VSS_SIPO4_64  DFFR_X1
xpisos_3__SP1_16_shift_reg_reg_13_  pisos_3__SP1_16_shift_reg_14____rc n571___rc n582___rc pisos_3__SP1_16_shift_reg_13_ n143 VDD_SIPO4_64 VSS_SIPO4_64  DFFR_X1
xpisos_3__SP1_16_shift_reg_reg_12_  pisos_3__SP1_16_shift_reg_13____rc n577___rc n585___rc pisos_3__SP1_16_shift_reg_12_ n142 VDD_SIPO4_64 VSS_SIPO4_64  DFFR_X1
xpisos_3__SP1_16_shift_reg_reg_11_  pisos_3__SP1_16_shift_reg_12____rc n576___rc n585___rc pisos_3__SP1_16_shift_reg_11_ n141 VDD_SIPO4_64 VSS_SIPO4_64  DFFR_X1
xpisos_3__SP1_16_shift_reg_reg_10_  pisos_3__SP1_16_shift_reg_11____rc n575___rc n582___rc pisos_3__SP1_16_shift_reg_10_ n140 VDD_SIPO4_64 VSS_SIPO4_64  DFFR_X1
xpisos_3__SP1_16_shift_reg_reg_9_  pisos_3__SP1_16_shift_reg_10____rc n577___rc n585___rc pisos_3__SP1_16_shift_reg_9_ n139 VDD_SIPO4_64 VSS_SIPO4_64  DFFR_X1
xpisos_3__SP1_16_shift_reg_reg_8_  pisos_3__SP1_16_shift_reg_9____rc n570___rc n582___rc pisos_3__SP1_16_shift_reg_8_ n138 VDD_SIPO4_64 VSS_SIPO4_64  DFFR_X1
xpisos_3__SP1_16_shift_reg_reg_7_  pisos_3__SP1_16_shift_reg_8____rc n571___rc n582___rc pisos_3__SP1_16_shift_reg_7_ n137 VDD_SIPO4_64 VSS_SIPO4_64  DFFR_X1
xpisos_3__SP1_16_shift_reg_reg_6_  pisos_3__SP1_16_shift_reg_7____rc n571___rc n582___rc pisos_3__SP1_16_shift_reg_6_ n136 VDD_SIPO4_64 VSS_SIPO4_64  DFFR_X1
xpisos_3__SP1_16_shift_reg_reg_5_  pisos_3__SP1_16_shift_reg_6____rc n571___rc n582___rc pisos_3__SP1_16_shift_reg_5_ n135 VDD_SIPO4_64 VSS_SIPO4_64  DFFR_X1
xpisos_3__SP1_16_shift_reg_reg_4_  pisos_3__SP1_16_shift_reg_5____rc n571___rc n582___rc pisos_3__SP1_16_shift_reg_4_ n134 VDD_SIPO4_64 VSS_SIPO4_64  DFFR_X1
xpisos_3__SP1_16_shift_reg_reg_3_  pisos_3__SP1_16_shift_reg_4____rc n571___rc n582___rc pisos_3__SP1_16_shift_reg_3_ n133 VDD_SIPO4_64 VSS_SIPO4_64  DFFR_X1
xpisos_3__SP1_16_shift_reg_reg_2_  pisos_3__SP1_16_shift_reg_3____rc n571___rc n582___rc pisos_3__SP1_16_shift_reg_2_ n132 VDD_SIPO4_64 VSS_SIPO4_64  DFFR_X1
xpisos_3__SP1_16_shift_reg_reg_1_  pisos_3__SP1_16_shift_reg_2____rc n571___rc n582___rc pisos_3__SP1_16_shift_reg_1_ n131 VDD_SIPO4_64 VSS_SIPO4_64  DFFR_X1
xpisos_3__SP1_16_shift_reg_reg_0_  pisos_3__SP1_16_shift_reg_1____rc n571___rc n582___rc SPICE_NETLIST_UNCONNECTED_64 n128 VDD_SIPO4_64 VSS_SIPO4_64  DFFR_X1
xpisos_3__SP1_16_PARALLEL_OUT_reg_0_  n161___rc n571___rc n582___rc PARALLEL_OUT[3] SPICE_NETLIST_UNCONNECTED_65 VDD_SIPO4_64 VSS_SIPO4_64  DFFR_X1
xpisos_3__SP1_16_PARALLEL_OUT_reg_1_  n160___rc n571___rc n582___rc PARALLEL_OUT[7] SPICE_NETLIST_UNCONNECTED_66 VDD_SIPO4_64 VSS_SIPO4_64  DFFR_X1
xpisos_3__SP1_16_PARALLEL_OUT_reg_2_  n159___rc n571___rc n582___rc PARALLEL_OUT[11] SPICE_NETLIST_UNCONNECTED_67 VDD_SIPO4_64 VSS_SIPO4_64  DFFR_X1
xpisos_3__SP1_16_PARALLEL_OUT_reg_3_  n158___rc n571___rc n582___rc PARALLEL_OUT[15] SPICE_NETLIST_UNCONNECTED_68 VDD_SIPO4_64 VSS_SIPO4_64  DFFR_X1
xpisos_3__SP1_16_PARALLEL_OUT_reg_4_  n157___rc n571___rc n582___rc PARALLEL_OUT[19] SPICE_NETLIST_UNCONNECTED_69 VDD_SIPO4_64 VSS_SIPO4_64  DFFR_X1
xpisos_3__SP1_16_PARALLEL_OUT_reg_5_  n156___rc n570___rc n582___rc PARALLEL_OUT[23] SPICE_NETLIST_UNCONNECTED_70 VDD_SIPO4_64 VSS_SIPO4_64  DFFR_X1
xpisos_3__SP1_16_PARALLEL_OUT_reg_6_  n155___rc n570___rc n582___rc PARALLEL_OUT[27] SPICE_NETLIST_UNCONNECTED_71 VDD_SIPO4_64 VSS_SIPO4_64  DFFR_X1
xpisos_3__SP1_16_PARALLEL_OUT_reg_7_  n154___rc n570___rc n582___rc PARALLEL_OUT[31] SPICE_NETLIST_UNCONNECTED_72 VDD_SIPO4_64 VSS_SIPO4_64  DFFR_X1
xpisos_3__SP1_16_PARALLEL_OUT_reg_8_  n153___rc n570___rc n582___rc PARALLEL_OUT[35] SPICE_NETLIST_UNCONNECTED_73 VDD_SIPO4_64 VSS_SIPO4_64  DFFR_X1
xpisos_3__SP1_16_PARALLEL_OUT_reg_9_  n152___rc n570___rc n582___rc PARALLEL_OUT[39] SPICE_NETLIST_UNCONNECTED_74 VDD_SIPO4_64 VSS_SIPO4_64  DFFR_X1
xpisos_3__SP1_16_PARALLEL_OUT_reg_10_  n151___rc n570___rc n582___rc PARALLEL_OUT[43] SPICE_NETLIST_UNCONNECTED_75 VDD_SIPO4_64 VSS_SIPO4_64  DFFR_X1
xpisos_3__SP1_16_PARALLEL_OUT_reg_11_  n150___rc n570___rc n582___rc PARALLEL_OUT[47] SPICE_NETLIST_UNCONNECTED_76 VDD_SIPO4_64 VSS_SIPO4_64  DFFR_X1
xpisos_3__SP1_16_PARALLEL_OUT_reg_12_  n149___rc n570___rc n582___rc PARALLEL_OUT[51] SPICE_NETLIST_UNCONNECTED_77 VDD_SIPO4_64 VSS_SIPO4_64  DFFR_X1
xpisos_3__SP1_16_PARALLEL_OUT_reg_13_  n148___rc n570___rc n582___rc PARALLEL_OUT[55] SPICE_NETLIST_UNCONNECTED_78 VDD_SIPO4_64 VSS_SIPO4_64  DFFR_X1
xpisos_3__SP1_16_PARALLEL_OUT_reg_14_  n147___rc n570___rc n582___rc PARALLEL_OUT[59] SPICE_NETLIST_UNCONNECTED_79 VDD_SIPO4_64 VSS_SIPO4_64  DFFR_X1
xpisos_3__SP1_16_PARALLEL_OUT_reg_15_  n146___rc n570___rc n582___rc PARALLEL_OUT[63] SPICE_NETLIST_UNCONNECTED_80 VDD_SIPO4_64 VSS_SIPO4_64  DFFR_X1
xU170  n231___rc n496___rc n322___rc n197 VDD_SIPO4_64 VSS_SIPO4_64  OAI21_X1
xU174  n562___rc n233___rc n234 VDD_SIPO4_64 VSS_SIPO4_64  NAND2_X1
xU243  n443___rc n354___rc pisos_1__SP1_16_N4 VDD_SIPO4_64 VSS_SIPO4_64  XNOR2_X1
xU244  pisos_1__SP1_16_ctr_2____rc n229___rc n284___rc n443 VDD_SIPO4_64 VSS_SIPO4_64  AND3_X1
xU245  n485___rc n284 VDD_SIPO4_64 VSS_SIPO4_64  INV_X1
xU298  n337___rc n492___rc n322 VDD_SIPO4_64 VSS_SIPO4_64  AND2_X4
xU305  n440___rc n328___rc pisos_0__SP1_16_N4 VDD_SIPO4_64 VSS_SIPO4_64  XNOR2_X1
xU306  n531___rc n328 VDD_SIPO4_64 VSS_SIPO4_64  INV_X1
xU307  n447___rc n492___rc n353___rc n440 VDD_SIPO4_64 VSS_SIPO4_64  NOR3_X1
xU309  n446___rc n361___rc pisos_2__SP1_16_N4 VDD_SIPO4_64 VSS_SIPO4_64  XNOR2_X1
xU311  n447___rc n468___rc n362___rc n446 VDD_SIPO4_64 VSS_SIPO4_64  NOR3_X1
xU312  n450___rc n363___rc pisos_3__SP1_16_N4 VDD_SIPO4_64 VSS_SIPO4_64  XNOR2_X1
xU314  n447___rc n451___rc n364___rc n450 VDD_SIPO4_64 VSS_SIPO4_64  NOR3_X1
xU333  n531___rc n352 VDD_SIPO4_64 VSS_SIPO4_64  INV_X1
xU334  pisos_1__SP1_16_ctr_3____rc n354 VDD_SIPO4_64 VSS_SIPO4_64  INV_X1
xU335  n349___rc pisos_1__SP1_16_ctr_1____rc n350 VDD_SIPO4_64 VSS_SIPO4_64  NAND2_X1
xU345  n529___rc n361 VDD_SIPO4_64 VSS_SIPO4_64  INV_X1
xU346  pisos_3__SP1_16_ctr_3____rc n363 VDD_SIPO4_64 VSS_SIPO4_64  INV_X1
xU369  n578___rc n135___rc n376 VDD_SIPO4_64 VSS_SIPO4_64  OR2_X1
xU371  n578___rc n145___rc n367 VDD_SIPO4_64 VSS_SIPO4_64  OR2_X1
xU373  n578___rc n131___rc n380 VDD_SIPO4_64 VSS_SIPO4_64  OR2_X1
xU375  n578___rc n134___rc n377 VDD_SIPO4_64 VSS_SIPO4_64  OR2_X1
xU377  n578___rc n141___rc n371 VDD_SIPO4_64 VSS_SIPO4_64  OR2_X1
xU380  n578___rc n128___rc n381 VDD_SIPO4_64 VSS_SIPO4_64  OR2_X1
xU382  n578___rc n138___rc n374 VDD_SIPO4_64 VSS_SIPO4_64  OR2_X1
xU384  n578___rc n143___rc n369 VDD_SIPO4_64 VSS_SIPO4_64  OR2_X1
xU386  n578___rc n133___rc n378 VDD_SIPO4_64 VSS_SIPO4_64  OR2_X1
xU388  n578___rc n136___rc n375 VDD_SIPO4_64 VSS_SIPO4_64  OR2_X1
xU390  n578___rc n140___rc n372 VDD_SIPO4_64 VSS_SIPO4_64  OR2_X1
xU392  n578___rc n139___rc n373 VDD_SIPO4_64 VSS_SIPO4_64  OR2_X1
xU394  n578___rc n142___rc n370 VDD_SIPO4_64 VSS_SIPO4_64  OR2_X1
xU396  n578___rc n144___rc n368 VDD_SIPO4_64 VSS_SIPO4_64  OR2_X1
xU397  n580___rc n117___rc n392 VDD_SIPO4_64 VSS_SIPO4_64  OR2_X1
xU398  n580___rc n123___rc n387 VDD_SIPO4_64 VSS_SIPO4_64  OR2_X1
xU399  n397___rc n489___rc n562___rc n183 VDD_SIPO4_64 VSS_SIPO4_64  OAI21_X1
xU400  n408___rc n503___rc n322___rc n204 VDD_SIPO4_64 VSS_SIPO4_64  OAI21_X1
xU401  n339___rc n81___rc n408 VDD_SIPO4_64 VSS_SIPO4_64  OR2_X1
xU402  n580___rc n127___rc n383 VDD_SIPO4_64 VSS_SIPO4_64  OR2_X1
xU403  n580___rc n126___rc n384 VDD_SIPO4_64 VSS_SIPO4_64  OR2_X1
xU404  n406___rc n501___rc n322___rc n202 VDD_SIPO4_64 VSS_SIPO4_64  OAI21_X1
xU405  n339___rc n83___rc n406 VDD_SIPO4_64 VSS_SIPO4_64  OR2_X1
xU406  n580___rc n114___rc n394 VDD_SIPO4_64 VSS_SIPO4_64  OR2_X1
xU407  n580___rc n113___rc n395 VDD_SIPO4_64 VSS_SIPO4_64  OR2_X1
xU408  n580___rc n118___rc n391 VDD_SIPO4_64 VSS_SIPO4_64  OR2_X1
xU409  n410___rc n505___rc n322___rc n206 VDD_SIPO4_64 VSS_SIPO4_64  OAI21_X1
xU410  n339___rc n79___rc n410 VDD_SIPO4_64 VSS_SIPO4_64  OR2_X1
xU411  n580___rc n110___rc n396 VDD_SIPO4_64 VSS_SIPO4_64  OR2_X1
xU412  n580___rc n116___rc n393 VDD_SIPO4_64 VSS_SIPO4_64  OR2_X1
xU413  n409___rc n504___rc n322___rc n205 VDD_SIPO4_64 VSS_SIPO4_64  OAI21_X1
xU414  n339___rc n80___rc n409 VDD_SIPO4_64 VSS_SIPO4_64  OR2_X1
xU415  n580___rc n121___rc n389 VDD_SIPO4_64 VSS_SIPO4_64  OR2_X1
xU416  n580___rc n122___rc n388 VDD_SIPO4_64 VSS_SIPO4_64  OR2_X1
xU417  n413___rc n508___rc n322___rc n209 VDD_SIPO4_64 VSS_SIPO4_64  OAI21_X1
xU418  n339___rc n74___rc n413 VDD_SIPO4_64 VSS_SIPO4_64  OR2_X1
xU419  n403___rc n498___rc n322___rc n199 VDD_SIPO4_64 VSS_SIPO4_64  OAI21_X1
xU420  n339___rc n86___rc n403 VDD_SIPO4_64 VSS_SIPO4_64  OR2_X1
xU421  n407___rc n502___rc n322___rc n203 VDD_SIPO4_64 VSS_SIPO4_64  OAI21_X1
xU422  n339___rc n82___rc n407 VDD_SIPO4_64 VSS_SIPO4_64  OR2_X1
xU423  n580___rc n124___rc n386 VDD_SIPO4_64 VSS_SIPO4_64  OR2_X1
xU424  n580___rc n125___rc n385 VDD_SIPO4_64 VSS_SIPO4_64  OR2_X1
xU425  n412___rc n507___rc n322___rc n208 VDD_SIPO4_64 VSS_SIPO4_64  OAI21_X1
xU426  n339___rc n77___rc n412 VDD_SIPO4_64 VSS_SIPO4_64  OR2_X1
xU427  n402___rc n497___rc n322___rc n198 VDD_SIPO4_64 VSS_SIPO4_64  OAI21_X1
xU428  n339___rc n87___rc n402 VDD_SIPO4_64 VSS_SIPO4_64  OR2_X1
xU429  n405___rc n500___rc n322___rc n201 VDD_SIPO4_64 VSS_SIPO4_64  OAI21_X1
xU430  n339___rc n84___rc n405 VDD_SIPO4_64 VSS_SIPO4_64  OR2_X1
xU431  n399___rc n493___rc n322___rc n194 VDD_SIPO4_64 VSS_SIPO4_64  OAI21_X1
xU432  n339___rc n91___rc n399 VDD_SIPO4_64 VSS_SIPO4_64  OR2_X1
xU433  n411___rc n506___rc n322___rc n207 VDD_SIPO4_64 VSS_SIPO4_64  OAI21_X1
xU434  n339___rc n78___rc n411 VDD_SIPO4_64 VSS_SIPO4_64  OR2_X1
xU435  n580___rc n119___rc n390 VDD_SIPO4_64 VSS_SIPO4_64  OR2_X1
xU436  n404___rc n499___rc n322___rc n200 VDD_SIPO4_64 VSS_SIPO4_64  OAI21_X1
xU437  n339___rc n85___rc n404 VDD_SIPO4_64 VSS_SIPO4_64  OR2_X1
xU438  n400___rc n494___rc n322___rc n195 VDD_SIPO4_64 VSS_SIPO4_64  OAI21_X1
xU439  n401___rc n495___rc n322___rc n196 VDD_SIPO4_64 VSS_SIPO4_64  OAI21_X1
xU440  n339___rc n89___rc n401 VDD_SIPO4_64 VSS_SIPO4_64  OR2_X1
xU441  pisos_3__SP1_16_ctr_0____rc n366___rc n365___rc DATA_USED_OUT VDD_SIPO4_64 VSS_SIPO4_64  AOI21_X1
xU454  n229___rc pisos_0__SP1_16_ctr_1____rc n492___rc n447___rc pisos_0__SP1_16_N2 VDD_SIPO4_64 VSS_SIPO4_64  AOI22_X1
xU456  n229___rc pisos_0__SP1_16_ctr_1____rc n438 VDD_SIPO4_64 VSS_SIPO4_64  NAND2_X1
xU457  n440___rc n353___rc n438___rc pisos_0__SP1_16_N3 VDD_SIPO4_64 VSS_SIPO4_64  AOI21_X1
xU458  n229___rc pisos_1__SP1_16_ctr_1____rc n485___rc n447___rc pisos_1__SP1_16_N2 VDD_SIPO4_64 VSS_SIPO4_64  AOI22_X1
xU460  n229___rc pisos_1__SP1_16_ctr_1____rc n441 VDD_SIPO4_64 VSS_SIPO4_64  NAND2_X1
xU461  n443___rc n355___rc n441___rc pisos_1__SP1_16_N3 VDD_SIPO4_64 VSS_SIPO4_64  AOI21_X1
xU462  n229___rc pisos_2__SP1_16_ctr_1____rc n468___rc n447___rc pisos_2__SP1_16_N2 VDD_SIPO4_64 VSS_SIPO4_64  AOI22_X1
xU464  n229___rc pisos_2__SP1_16_ctr_1____rc n444 VDD_SIPO4_64 VSS_SIPO4_64  NAND2_X1